*HEADING
cubit(/home/4q4/Desktop/JamesAOP/Meshes/RookDwellMesh.inp): 05/13/2025: 14:28:01
version: 16.18.1
**
********************************** P A R T S **********************************
*PART, NAME=Part-Default
**
********************************** N O D E S **********************************
*NODE, NSET=ALLNODES
       1,   -8.042229e+00,   -1.885998e+01,   -6.801944e-01
       2,   -4.237873e+00,   -2.024155e+01,    1.060900e-01
       3,   -1.117737e+01,   -1.659940e+01,    2.373595e-01
       4,   -1.406673e+01,   -1.406781e+01,   -2.011263e-02
       5,   -1.659632e+01,   -1.117586e+01,    2.288126e-01
       6,   -1.886637e+01,   -8.043484e+00,   -6.754994e-01
       7,   -2.024847e+01,   -4.238379e+00,    1.089940e-01
       8,   -2.049107e+01,   -1.953699e-15,    1.896747e-01
       9,   -2.024847e+01,    4.238379e+00,    1.089940e-01
      10,   -1.886637e+01,    8.043484e+00,   -6.754994e-01
      11,   -1.659632e+01,    1.117586e+01,    2.288126e-01
      12,   -1.406673e+01,    1.406781e+01,   -2.011263e-02
      13,   -1.117737e+01,    1.659940e+01,    2.373595e-01
      14,   -8.042229e+00,    1.885998e+01,   -6.801944e-01
      15,   -4.237873e+00,    2.024155e+01,    1.060900e-01
      16,   -5.932138e-04,    2.048711e+01,    1.870978e-01
      17,    4.236226e+00,    2.023916e+01,    1.046230e-01
      18,    8.041457e+00,    1.885934e+01,   -6.755003e-01
      19,    1.117681e+01,    1.659758e+01,    2.316077e-01
      20,    1.406962e+01,    1.407290e+01,   -2.175996e-02
** ... 3076 like lines cut
**
********************************** E L E M E N T S ****************************
*ELEMENT, TYPE=C3D8R, ELSET=EB1
       1,     585,     586,     389,     587,     636,     638,     417,     634
       2,     586,     616,     390,     389,     638,     640,     418,     417
       3,     587,     389,     391,     392,     634,     417,     419,     420
       4,     636,     638,     417,     634,     637,     639,     421,     635
       5,     638,     640,     418,     417,     639,     641,     422,     421
       6,     634,     417,     419,     420,     635,     421,     423,     424
       7,     637,     639,     421,     635,     850,     852,     425,     848
       8,     639,     641,     422,     421,     852,     656,     426,     425
       9,     635,     421,     423,     424,     848,     425,     427,     428
      10,     850,     852,     425,     848,     851,     853,     429,     849
      11,     852,     656,     426,     425,     853,     658,     430,     429
      12,     848,     425,     427,     428,     849,     429,     431,     432
      13,     851,     853,     429,     849,     855,     854,     858,     875
      14,     853,     658,     430,     429,     854,     661,     433,     858
      15,     849,     429,     431,     432,     875,     858,     434,     435
      16,     429,     430,     436,     431,     858,     433,     437,     434
      17,     844,     849,     432,     843,     845,     875,     435,     841
      18,     432,     431,     918,     438,     435,     434,     914,     439
      19,     875,     858,     434,     435,     873,     859,     440,     441
      20,     858,     433,     437,     434,     859,     442,     443,     440
** ... 2316 like lines cut
**
********************************** P R O P E R T I E S ************************
*SOLID SECTION, ELSET=EB1, MATERIAL=Default-Steel
**
*END PART
**
**
**
********************************** E N D   P A R T S **********************************
**
**
********************************** A S S E M B L Y ************************************
**
*ASSEMBLY, NAME=ASSEMBLY1
**
*INSTANCE, NAME=Part-Default_1, PART=Part-Default
*END INSTANCE
**
*END ASSEMBLY
**
**
**
*MATERIAL, NAME = Default-Steel
*ELASTIC, TYPE=ISOTROPIC
2.068000e+05, 2.900000e-01
*DENSITY
7.000000e-06
*CONDUCTIVITY,TYPE=ISO
4.500000e-02
*SPECIFIC HEAT
5.000000e+02
**
**
************************************** H I S T O R Y *************************************
**
*PREPRINT
**
**************************************** S T E P 1 ***************************************
*STEP,INC=100,NAME=Default Set
**
*STATIC
1, 1, 1e-05, 1
**
**
**
**
*END STEP
