*HEADING
cubit(4/Desktop/JamesAOP/Meshes/RookDwellMesh_85L_Substrate.inp): 05/19/2025: 13
version: 16.18.1
**
********************************** P A R T S **********************************
*PART, NAME=Part-Default
**
********************************** N O D E S **********************************
*NODE, NSET=ALLNODES
       1,   -2.000000e+01,   -2.449294e-15,   -1.509903e-12
       2,   -1.911146e+01,   -5.895103e+00,   -1.509744e-12
       3,   -1.652478e+01,   -1.126640e+01,   -1.509766e-12
       4,   -1.246980e+01,   -1.563663e+01,   -1.509800e-12
       5,   -7.306820e+00,   -1.861747e+01,   -1.509843e-12
       6,   -1.494602e+00,   -1.994408e+01,   -1.509891e-12
       7,    4.450419e+00,   -1.949856e+01,   -1.509940e-12
       8,    1.000000e+01,   -1.732051e+01,   -1.509986e-12
       9,    1.466104e+01,   -1.360345e+01,   -1.510025e-12
      10,    1.801938e+01,   -8.677675e+00,   -1.510053e-12
      11,    1.977662e+01,   -2.980845e+00,   -1.510068e-12
      12,    1.977662e+01,    2.980845e+00,   -1.510068e-12
      13,    1.801938e+01,    8.677675e+00,   -1.510053e-12
      14,    1.466104e+01,    1.360345e+01,   -1.510025e-12
      15,    1.000000e+01,    1.732051e+01,   -1.509986e-12
      16,    4.450419e+00,    1.949856e+01,   -1.509940e-12
      17,   -1.494602e+00,    1.994408e+01,   -1.509891e-12
      18,   -7.306820e+00,    1.861747e+01,   -1.509843e-12
      19,   -1.246980e+01,    1.563663e+01,   -1.509800e-12
      20,   -1.652478e+01,    1.126640e+01,   -1.509766e-12
** ... 9173 like lines cut
**
********************************** E L E M E N T S ****************************
*ELEMENT, TYPE=C3D8R, ELSET=EB1
       1,    3950,    3949,    3937,    3938,      78,      79,     102,     101
       2,    3938,    3939,    3963,    3950,     101,      98,      97,      78
       3,    3961,    3923,    3925,    3960,      90,      91,      92,      89
       4,    3903,    3961,    3960,    3922,      43,      90,      89,      63
       5,    3959,    3927,    3928,    3957,      87,      93,      94,      86
       6,    3920,    3959,    3957,    3919,      61,      87,      86,      60
       7,    3955,    3931,    3932,    3952,      83,      95,      96,      82
       8,    3916,    3955,    3952,    3915,      57,      83,      82,      56
       9,    3912,    3964,    3951,    3911,     104,     105,      80,      52
      10,    3913,    3962,    3964,    3912,      54,      53,     105,     104
      11,    3963,    3947,    3907,    3908,      97,      76,      48,      49
      12,    3963,    3939,    3940,    3947,      97,      98,      77,      76
      13,    3948,    3941,    3942,    3946,      75,      99,     100,      74
      14,    3906,    3948,    3946,    3905,      47,      75,      74,      46
      15,    3951,    3964,    3935,    3936,      80,     105,      70,     103
      16,    3949,    3951,    3936,    3937,      79,      80,     103,     102
      17,    3932,    3933,    3953,    3952,      96,      68,      81,      82
      18,    3930,    3931,    3955,    3954,      67,      95,      83,      84
      19,    3929,    3930,    3954,    3956,      66,      67,      84,      85
      20,    3928,    3929,    3956,    3957,      94,      66,      85,      86
** ... 7036 like lines cut
*ELEMENT, TYPE=C3D8R, ELSET=EB2
    7057,     287,     252,     253,     274,     157,     137,     138,     172
    7058,     272,     251,     252,     287,     171,     136,     137,     157
    7059,     284,     272,     287,     274,     168,     171,     157,     172
    7060,     286,     282,     280,     281,     170,     166,     164,     165
    7061,     283,     286,     281,     270,     167,     170,     165,     154
    7062,     276,     282,     286,     285,     160,     166,     170,     169
    7063,     284,     285,     286,     283,     168,     169,     170,     167
    7064,     273,     275,     276,     285,     158,     159,     160,     169
    7065,     274,     273,     285,     284,     172,     158,     169,     168
    7066,     271,     272,     284,     283,     156,     171,     168,     167
    7067,     269,     271,     283,     270,     155,     156,     167,     154
    7068,     278,     279,     280,     282,     162,     163,     164,     166
    7069,     277,     278,     282,     276,     161,     162,     166,     160
    7070,     246,     245,     270,     281,     130,     131,     154,     165
    7071,     268,     246,     281,     267,     153,     130,     165,     152
    7072,     266,     267,     281,     280,     151,     152,     165,     164
    7073,     265,     266,     280,     279,     150,     151,     164,     163
    7074,     264,     265,     279,     263,     149,     150,     163,     148
    7075,     262,     263,     279,     278,     147,     148,     163,     162
    7076,     261,     262,     278,     277,     146,     147,     162,     161
** ... 142 like lines cut
**
********************************** P R O P E R T I E S ************************
*SOLID SECTION, ELSET=EB1, MATERIAL=Default-Steel
*SOLID SECTION, ELSET=EB2, MATERIAL=Default-Steel
**
*END PART
**
**
**
********************************** E N D   P A R T S **********************************
**
**
********************************** A S S E M B L Y ************************************
**
*ASSEMBLY, NAME=ASSEMBLY1
**
*INSTANCE, NAME=Part-Default_1, PART=Part-Default
*END INSTANCE
**
*END ASSEMBLY
**
**
**
*MATERIAL, NAME = Default-Steel
*ELASTIC, TYPE=ISOTROPIC
2.068000e+05, 2.900000e-01
*DENSITY
7.000000e-06
*CONDUCTIVITY,TYPE=ISO
4.500000e-02
*SPECIFIC HEAT
5.000000e+02
**
**
************************************** H I S T O R Y *************************************
**
*PREPRINT
**
**************************************** S T E P 1 ***************************************
*STEP,INC=100,NAME=Default Set
**
*STATIC
1, 1, 1e-05, 1
**
**
**
**
*END STEP
